Version 4
SHEET 1 1412 1032
WIRE 336 -624 -192 -624
WIRE 416 -624 336 -624
WIRE 560 -624 496 -624
WIRE 960 -624 560 -624
WIRE 1152 -624 960 -624
WIRE 336 -560 336 -624
WIRE 560 -560 560 -624
WIRE 336 -448 336 -480
WIRE 560 -448 560 -480
WIRE 448 -400 400 -400
WIRE 496 -400 448 -400
WIRE 336 -320 336 -352
WIRE 448 -320 448 -400
WIRE 448 -320 336 -320
WIRE 560 -320 560 -352
WIRE 752 -320 560 -320
WIRE 336 -272 336 -320
WIRE 560 -224 560 -320
WIRE 560 -224 400 -224
WIRE 560 -160 560 -224
WIRE 752 -96 752 -320
WIRE 560 -48 560 -80
WIRE 688 -48 560 -48
WIRE 560 -16 560 -48
WIRE 752 32 752 0
WIRE 752 32 624 32
WIRE 752 96 752 32
WIRE 560 144 560 80
WIRE 688 144 560 144
WIRE 560 176 560 144
WIRE 752 224 752 192
WIRE 752 224 624 224
WIRE 752 256 752 224
WIRE 560 368 560 272
WIRE 752 368 752 336
WIRE 752 368 560 368
WIRE 560 448 560 368
WIRE 592 448 560 448
WIRE 752 448 672 448
WIRE 784 448 752 448
WIRE 560 528 560 448
WIRE 592 528 560 528
WIRE 752 528 752 448
WIRE 752 528 656 528
WIRE 656 592 624 592
WIRE 624 624 624 592
WIRE 560 640 560 528
WIRE 592 640 560 640
WIRE 960 640 960 -624
WIRE 752 656 752 528
WIRE 752 656 656 656
WIRE 0 672 -32 672
WIRE 176 672 144 672
WIRE 336 672 336 -176
WIRE 560 672 336 672
WIRE 592 672 560 672
WIRE -192 704 -192 -624
WIRE -32 704 -32 672
WIRE 144 704 144 672
WIRE 336 704 336 672
WIRE 560 720 560 672
WIRE 624 736 624 688
WIRE 656 736 624 736
WIRE -192 816 -192 784
WIRE -32 816 -32 784
WIRE -32 816 -192 816
WIRE 144 816 144 784
WIRE 144 816 -32 816
WIRE 336 816 336 784
WIRE 336 816 144 816
WIRE 560 816 560 784
WIRE 560 816 336 816
WIRE 960 816 960 720
WIRE 960 816 560 816
WIRE -192 848 -192 816
FLAG 784 448 SNS
IOPIN 784 448 Out
FLAG -192 848 0
FLAG 1152 -624 VOUT
IOPIN 1152 -624 Out
FLAG 656 592 VCC
IOPIN 656 592 In
FLAG 0 672 VCC
IOPIN 0 672 Out
FLAG 656 736 VEE
IOPIN 656 736 In
FLAG 176 672 VEE
IOPIN 176 672 Out
SYMBOL res 512 -640 R90
WINDOW 0 0 56 VBottom 2
WINDOW 3 32 56 VTop 2
SYMATTR InstName RSNS
SYMATTR Value 22m
SYMBOL res 320 -576 R0
WINDOW 0 39 47 Left 2
WINDOW 3 40 73 Left 2
SYMATTR InstName R1
SYMATTR Value 220
SYMBOL res 544 -576 R0
WINDOW 0 -44 47 Left 2
WINDOW 3 -43 73 Left 2
SYMATTR InstName R2
SYMATTR Value 220
SYMBOL pnp 400 -352 R180
WINDOW 0 99 55 Left 2
WINDOW 3 43 31 Left 2
SYMATTR InstName Q1
SYMATTR Value 2N3906
SYMBOL pnp 496 -352 M180
WINDOW 0 58 56 Left 2
WINDOW 3 58 32 Left 2
SYMATTR InstName Q2
SYMATTR Value 2N3906
SYMBOL res 320 688 R0
WINDOW 0 40 44 Left 2
WINDOW 3 40 68 Left 2
SYMATTR InstName R6
SYMATTR Value 2k2
SYMBOL res 688 432 R90
WINDOW 0 0 56 VBottom 2
WINDOW 3 32 56 VTop 2
SYMATTR InstName R7
SYMATTR Value 2k2
SYMBOL voltage -192 688 R0
WINDOW 0 38 42 Left 2
WINDOW 3 35 65 Left 2
WINDOW 123 0 0 Left 0
WINDOW 39 0 0 Left 0
SYMATTR InstName BUS
SYMATTR Value 300
SYMBOL npn 624 176 M0
WINDOW 0 104 29 Left 2
WINDOW 3 39 56 Left 2
SYMATTR InstName Q7
SYMATTR Value MPSA44
SYMBOL res 544 -176 R0
SYMATTR InstName R8
SYMATTR Value 1K2
SYMBOL res 736 240 R0
SYMATTR InstName R5
SYMATTR Value 1K2
SYMBOL pnp 400 -176 R180
WINDOW 0 101 57 Left 2
WINDOW 3 38 34 Left 2
SYMATTR InstName Q3
SYMATTR Value MPSA94
SYMBOL voltage -32 688 R0
WINDOW 0 45 45 Left 2
WINDOW 3 47 69 Left 2
WINDOW 123 0 0 Left 0
WINDOW 39 0 0 Left 0
SYMATTR InstName VCC
SYMATTR Value 5V
SYMBOL cap 656 512 R90
WINDOW 0 0 32 VBottom 2
WINDOW 3 32 32 VTop 2
SYMATTR InstName C1
SYMATTR Value 15p
SYMBOL cap 576 784 R180
WINDOW 0 62 54 Left 2
WINDOW 3 50 26 Left 2
SYMATTR InstName C2
SYMATTR Value 15p
SYMBOL pnp 624 80 R180
WINDOW 0 95 58 Left 2
WINDOW 3 29 33 Left 2
SYMATTR InstName Q5
SYMATTR Value MPSA94
SYMBOL pnp 688 0 M180
WINDOW 0 56 59 Left 2
WINDOW 3 57 33 Left 2
SYMATTR InstName Q4
SYMATTR Value MPSA94
SYMBOL npn 688 96 R0
WINDOW 0 51 35 Left 2
WINDOW 3 50 61 Left 2
SYMATTR InstName Q6
SYMATTR Value MPSA44
SYMBOL current 960 640 R0
WINDOW 123 24 108 Left 2
WINDOW 39 0 0 Left 0
SYMATTR Value2 AC 1
SYMATTR InstName I1
SYMATTR Value {ILOAD}
SYMBOL voltage 144 688 R0
WINDOW 0 45 45 Left 2
WINDOW 3 47 69 Left 2
WINDOW 123 0 0 Left 0
WINDOW 39 0 0 Left 0
SYMATTR InstName VEE
SYMATTR Value -5V
SYMBOL Opamps\\LT1805 624 656 R0
SYMATTR InstName U1
TEXT -152 888 Left 2 !.MODEL MSW SW(Ron=10m Roff=1E9 Vt=5)
TEXT -152 912 Left 2 !.MODEL DID D(Ron=10m Roff=1E9)
TEXT -152 936 Left 2 !;tran 0 1m 0 1u
TEXT -152 840 Left 2 !.INCLUDE mpsa44.txt
TEXT -152 864 Left 2 !.INCLUDE mpsa94.txt
TEXT 1064 680 Left 2 !.step param ILOAD 0 5 0.1
TEXT 1064 600 Left 2 !.op 0 1m 0 1u
