.MODEL MPSA94 PNP
+ IS=156.58E-15
+ BF=147.108
+ VAF=10.1516
+ IKF=106.995E-3
+ ISE=104.44E-15
+ NE=1.2648
+ BR=499.50
+ VAR=50
+ IKR=1.980
+ ISC=525.06E-9
+ NC=2.9970
+ NK=.84885
+ RB=11.191
+ RC=500E-3
+ CJE=109.36E-12
+ VJE=1.2027
+ MJE=.36517
+ CJC=22.069E-12
+ VJC=1.5000
+ MJC=.47644
+ TF=5.0684E-9
+ XTF=4.4190
+ VTF=33.199
+ ITF=.24553
+ TR=4.0513E-6
+ XTB=1.5000
