Version 4
SHEET 1 880 680
WIRE 240 -176 -80 -176
WIRE 240 -112 240 -176
WIRE -80 -80 -80 -176
WIRE 240 16 240 -32
WIRE -80 48 -80 0
WIRE 32 96 -192 96
WIRE 192 96 112 96
WIRE 208 160 208 128
WIRE 240 160 240 128
WIRE 240 160 208 160
WIRE 208 176 208 160
WIRE -192 192 -192 96
WIRE -192 336 -192 272
FLAG 208 176 0
FLAG -192 336 0
FLAG -80 48 0
SYMBOL Onsemi\\FCMT125N65S3_4p 192 16 R0
SYMATTR InstName U1
SYMBOL voltage -192 176 R0
WINDOW 123 0 0 Left 0
WINDOW 39 0 0 Left 0
SYMATTR InstName V1
SYMATTR Value PULSE(0 10 1u 10n 10n 1u 3u)
SYMBOL res 224 -128 R0
SYMATTR InstName R1
SYMATTR Value 20
SYMBOL voltage -80 -96 R0
WINDOW 123 0 0 Left 0
WINDOW 39 0 0 Left 0
SYMATTR InstName V2
SYMATTR Value 390
SYMBOL res 128 80 R90
WINDOW 0 0 56 VBottom 2
WINDOW 3 32 56 VTop 2
SYMATTR InstName R2
SYMATTR Value 2.2
TEXT 0 216 Left 2 !.INCLUDE ONSEMI_SUPERFET3_650_ltspice.txt
TEXT -528 16 Left 2 !.tran 0 10u 0 10n
